:orphan:

aqmbc Examples
==============

Each of the examples below uses a minimum working example. Each example was first tested on the original files from the source model. Afterwards, the input files were subset to make the inputs easy to distribute.

* Only ozone and sulfate aerosol were retained,
* lon/lat was subset to just conver the continental US, and
* the grid was thinned to 3x3 (corners and midpoints).

The examples assume that you have installed aqmbc:

.. code-block::

    pip install git+https://github.com/barronh/aqmbc.git


After that, you can copy or download the code to run it.

When you are comfortable running the examples, read the :doc:`../modifyexamples` section. That describes in detail how to update an example for real-world application. If something is unclear, feel free to open an `issue <https://github.com/barronh/aqmbc/issues>`_. 




.. raw:: html

    <div class="sphx-glr-thumbnails">


.. raw:: html

    <div class="sphx-glr-thumbcontainer" tooltip="This example shows how to use aqmbc with GEOS-Chem&#x27;s publicly available benchmark outputs.">

.. only:: html

  .. image:: /auto_examples/images/thumb/sphx_glr_gcbc_example_thumb.png
    :alt:

  :ref:`sphx_glr_auto_examples_gcbc_example.py`

.. raw:: html

      <div class="sphx-glr-thumbnail-title">GEOS-Chem Benchmark LBC for CMAQ</div>
    </div>


.. raw:: html

    <div class="sphx-glr-thumbcontainer" tooltip="This example shows how to use aqmbc with a synthetic Hemispheric CMAQ.">

.. only:: html

  .. image:: /auto_examples/images/thumb/sphx_glr_hcmaq_example_thumb.png
    :alt:

  :ref:`sphx_glr_auto_examples_hcmaq_example.py`

.. raw:: html

      <div class="sphx-glr-thumbnail-title">Hemispheric CMAQ LBC for CMAQ</div>
    </div>


.. raw:: html

    <div class="sphx-glr-thumbcontainer" tooltip="This example shows how to use aqmbc with GEOS-CF&#x27;s publicly available OpenDAP.">

.. only:: html

  .. image:: /auto_examples/images/thumb/sphx_glr_geoscf_example_thumb.png
    :alt:

  :ref:`sphx_glr_auto_examples_geoscf_example.py`

.. raw:: html

      <div class="sphx-glr-thumbnail-title">GEOS-CF LBC for CMAQ</div>
    </div>


.. raw:: html

    <div class="sphx-glr-thumbcontainer" tooltip="This example shows how to use aqmbc with RAQMS&#x27;s publicly available forecasts.">

.. only:: html

  .. image:: /auto_examples/images/thumb/sphx_glr_raqms_example_thumb.png
    :alt:

  :ref:`sphx_glr_auto_examples_raqms_example.py`

.. raw:: html

      <div class="sphx-glr-thumbnail-title">RAQMS LBC for CMAQ</div>
    </div>


.. raw:: html

    <div class="sphx-glr-thumbcontainer" tooltip="CMAQ expects BCON files to have 25 instantaneous outputs that cover from 00Z on the simulation ...">

.. only:: html

  .. image:: /auto_examples/images/thumb/sphx_glr_cmaqready_example_thumb.png
    :alt:

  :ref:`sphx_glr_auto_examples_cmaqready_example.py`

.. raw:: html

      <div class="sphx-glr-thumbnail-title">Preparing AQMBC Output for CMAQ</div>
    </div>


.. raw:: html

    <div class="sphx-glr-thumbcontainer" tooltip="This example shows how to use aqmbc with TROPESS Composition Reanalysis (TCR) files, which are ...">

.. only:: html

  .. image:: /auto_examples/images/thumb/sphx_glr_tcr_example_thumb.png
    :alt:

  :ref:`sphx_glr_auto_examples_tcr_example.py`

.. raw:: html

      <div class="sphx-glr-thumbnail-title">TCR LBC for CMAQ</div>
    </div>


.. raw:: html

    <div class="sphx-glr-thumbcontainer" tooltip="This example shows how to use aqmbc with WACCM&#x27;s publicly available forecasts.">

.. only:: html

  .. image:: /auto_examples/images/thumb/sphx_glr_waccm_example_thumb.png
    :alt:

  :ref:`sphx_glr_auto_examples_waccm_example.py`

.. raw:: html

      <div class="sphx-glr-thumbnail-title">WACCM LBC for CMAQ</div>
    </div>


.. raw:: html

    </div>


.. toctree::
   :hidden:

   /auto_examples/gcbc_example
   /auto_examples/hcmaq_example
   /auto_examples/geoscf_example
   /auto_examples/raqms_example
   /auto_examples/cmaqready_example
   /auto_examples/tcr_example
   /auto_examples/waccm_example


.. only:: html

  .. container:: sphx-glr-footer sphx-glr-footer-gallery

    .. container:: sphx-glr-download sphx-glr-download-python

      :download:`Download all examples in Python source code: auto_examples_python.zip </auto_examples/auto_examples_python.zip>`

    .. container:: sphx-glr-download sphx-glr-download-jupyter

      :download:`Download all examples in Jupyter notebooks: auto_examples_jupyter.zip </auto_examples/auto_examples_jupyter.zip>`


.. only:: html

 .. rst-class:: sphx-glr-signature

    `Gallery generated by Sphinx-Gallery <https://sphinx-gallery.github.io>`_
