# Source: GEOS-Chem v11+ netcdf
AIRMOLDEN = Met_PMIDDRY[:] * 100 / 8.3144621 / Met_T[:]
AIRMOLDEN.units ="mole/m3"
